
---------- Begin Simulation Statistics ----------
final_tick                               123106990000                       # Number of ticks from beginning of simulation (restored from checkpoints and never reset)
host_inst_rate                                 255926                       # Simulator instruction rate (inst/s)
host_mem_usage                                 662904                       # Number of bytes of host memory used
host_op_rate                                   280063                       # Simulator op (including micro ops) rate (op/s)
host_seconds                                   390.74                       # Real time elapsed on the host
host_tick_rate                              315063036                       # Simulator tick rate (ticks/s)
sim_freq                                 1000000000000                       # Frequency of simulated ticks
sim_insts                                   100000000                       # Number of instructions simulated
sim_ops                                     109431286                       # Number of ops (including micro ops) simulated
sim_seconds                                  0.123107                       # Number of seconds simulated
sim_ticks                                123106990000                       # Number of ticks simulated
system.cpu.committedInsts                   100000000                       # Number of instructions committed
system.cpu.committedOps                     109431286                       # Number of ops (including micro ops) committed
system.cpu.cpi                               1.231070                       # CPI: cycles per instruction
system.cpu.discardedOps                        376087                       # Number of ops (including micro ops) which were discarded before commit
system.cpu.idleCycles                         9776375                       # Total number of cycles that the object has spent stopped
system.cpu.ipc                               0.812302                       # IPC: instructions per cycle
system.cpu.numCycles                        123106990                       # number of cpu cycles simulated
system.cpu.numFetchSuspends                         0                       # Number of times Execute suspended instruction fetching
system.cpu.numWorkItemsCompleted                    0                       # number of work items this cpu completed
system.cpu.numWorkItemsStarted                      0                       # number of work items this cpu started
system.cpu.op_class_0::No_OpClass                   0      0.00%      0.00% # Class of committed instruction
system.cpu.op_class_0::IntAlu                72955000     66.67%     66.67% # Class of committed instruction
system.cpu.op_class_0::IntMult                 568364      0.52%     67.19% # Class of committed instruction
system.cpu.op_class_0::IntDiv                       0      0.00%     67.19% # Class of committed instruction
system.cpu.op_class_0::FloatAdd                     0      0.00%     67.19% # Class of committed instruction
system.cpu.op_class_0::FloatCmp                     0      0.00%     67.19% # Class of committed instruction
system.cpu.op_class_0::FloatCvt                     0      0.00%     67.19% # Class of committed instruction
system.cpu.op_class_0::FloatMult                    0      0.00%     67.19% # Class of committed instruction
system.cpu.op_class_0::FloatMultAcc                 0      0.00%     67.19% # Class of committed instruction
system.cpu.op_class_0::FloatDiv                     0      0.00%     67.19% # Class of committed instruction
system.cpu.op_class_0::FloatMisc                    0      0.00%     67.19% # Class of committed instruction
system.cpu.op_class_0::FloatSqrt                    0      0.00%     67.19% # Class of committed instruction
system.cpu.op_class_0::SimdAdd                 241336      0.22%     67.41% # Class of committed instruction
system.cpu.op_class_0::SimdAddAcc                   0      0.00%     67.41% # Class of committed instruction
system.cpu.op_class_0::SimdAlu                 154628      0.14%     67.55% # Class of committed instruction
system.cpu.op_class_0::SimdCmp                 120668      0.11%     67.66% # Class of committed instruction
system.cpu.op_class_0::SimdCvt                      0      0.00%     67.66% # Class of committed instruction
system.cpu.op_class_0::SimdMisc                 44543      0.04%     67.70% # Class of committed instruction
system.cpu.op_class_0::SimdMult                     0      0.00%     67.70% # Class of committed instruction
system.cpu.op_class_0::SimdMultAcc                  0      0.00%     67.70% # Class of committed instruction
system.cpu.op_class_0::SimdShift                    0      0.00%     67.70% # Class of committed instruction
system.cpu.op_class_0::SimdShiftAcc                 0      0.00%     67.70% # Class of committed instruction
system.cpu.op_class_0::SimdDiv                      0      0.00%     67.70% # Class of committed instruction
system.cpu.op_class_0::SimdSqrt                     0      0.00%     67.70% # Class of committed instruction
system.cpu.op_class_0::SimdFloatAdd                 0      0.00%     67.70% # Class of committed instruction
system.cpu.op_class_0::SimdFloatAlu                 0      0.00%     67.70% # Class of committed instruction
system.cpu.op_class_0::SimdFloatCmp                 0      0.00%     67.70% # Class of committed instruction
system.cpu.op_class_0::SimdFloatCvt                 0      0.00%     67.70% # Class of committed instruction
system.cpu.op_class_0::SimdFloatDiv                 0      0.00%     67.70% # Class of committed instruction
system.cpu.op_class_0::SimdFloatMisc           166417      0.15%     67.85% # Class of committed instruction
system.cpu.op_class_0::SimdFloatMult                0      0.00%     67.85% # Class of committed instruction
system.cpu.op_class_0::SimdFloatMultAcc             0      0.00%     67.85% # Class of committed instruction
system.cpu.op_class_0::SimdFloatSqrt                0      0.00%     67.85% # Class of committed instruction
system.cpu.op_class_0::SimdReduceAdd                0      0.00%     67.85% # Class of committed instruction
system.cpu.op_class_0::SimdReduceAlu                0      0.00%     67.85% # Class of committed instruction
system.cpu.op_class_0::SimdReduceCmp                0      0.00%     67.85% # Class of committed instruction
system.cpu.op_class_0::SimdFloatReduceAdd            0      0.00%     67.85% # Class of committed instruction
system.cpu.op_class_0::SimdFloatReduceCmp            0      0.00%     67.85% # Class of committed instruction
system.cpu.op_class_0::SimdAes                      0      0.00%     67.85% # Class of committed instruction
system.cpu.op_class_0::SimdAesMix                   0      0.00%     67.85% # Class of committed instruction
system.cpu.op_class_0::SimdSha1Hash                 0      0.00%     67.85% # Class of committed instruction
system.cpu.op_class_0::SimdSha1Hash2                0      0.00%     67.85% # Class of committed instruction
system.cpu.op_class_0::SimdSha256Hash               0      0.00%     67.85% # Class of committed instruction
system.cpu.op_class_0::SimdSha256Hash2              0      0.00%     67.85% # Class of committed instruction
system.cpu.op_class_0::SimdShaSigma2                0      0.00%     67.85% # Class of committed instruction
system.cpu.op_class_0::SimdShaSigma3                0      0.00%     67.85% # Class of committed instruction
system.cpu.op_class_0::SimdPredAlu                  0      0.00%     67.85% # Class of committed instruction
system.cpu.op_class_0::MemRead               20645995     18.87%     86.72% # Class of committed instruction
system.cpu.op_class_0::MemWrite              14534335     13.28%    100.00% # Class of committed instruction
system.cpu.op_class_0::FloatMemRead                 0      0.00%    100.00% # Class of committed instruction
system.cpu.op_class_0::FloatMemWrite                0      0.00%    100.00% # Class of committed instruction
system.cpu.op_class_0::IprAccess                    0      0.00%    100.00% # Class of committed instruction
system.cpu.op_class_0::InstPrefetch                 0      0.00%    100.00% # Class of committed instruction
system.cpu.op_class_0::total                109431286                       # Class of committed instruction
system.cpu.tickCycles                       113330615                       # Number of cycles that the object actually ticked
system.cpu.workload.numSyscalls                    87                       # Number of system calls
system.membus.snoop_filter.hit_multi_requests            0                       # Number of requests hitting in the snoop filter with multiple (>1) holders of the requested data.
system.membus.snoop_filter.hit_multi_snoops            0                       # Number of snoops hitting in the snoop filter with multiple (>1) holders of the requested data.
system.membus.snoop_filter.hit_single_requests         6690                       # Number of requests hitting in the snoop filter with a single holder of the requested data.
system.membus.snoop_filter.hit_single_snoops            0                       # Number of snoops hitting in the snoop filter with a single holder of the requested data.
system.membus.snoop_filter.tot_requests         46547                       # Total number of requests made to the snoop filter.
system.membus.snoop_filter.tot_snoops               0                       # Total number of snoops made to the snoop filter.
system.tol2bus.snoop_filter.hit_multi_requests           27                       # Number of requests hitting in the snoop filter with multiple (>1) holders of the requested data.
system.tol2bus.snoop_filter.hit_multi_snoops            2                       # Number of snoops hitting in the snoop filter with multiple (>1) holders of the requested data.
system.tol2bus.snoop_filter.hit_single_requests       587743                       # Number of requests hitting in the snoop filter with a single holder of the requested data.
system.tol2bus.snoop_filter.hit_single_snoops          408                       # Number of snoops hitting in the snoop filter with a single holder of the requested data.
system.tol2bus.snoop_filter.tot_requests      1176902                       # Total number of requests made to the snoop filter.
system.tol2bus.snoop_filter.tot_snoops            410                       # Total number of snoops made to the snoop filter.
system.clk_domain.clock                          1000                       # Clock period in ticks
system.cpu.branchPred.lookups                20350937                       # Number of BP lookups
system.cpu.branchPred.condPredicted          16288607                       # Number of conditional branches predicted
system.cpu.branchPred.condIncorrect             53381                       # Number of conditional branches incorrect
system.cpu.branchPred.BTBLookups              8736969                       # Number of BTB lookups
system.cpu.branchPred.BTBHits                 8735586                       # Number of BTB hits
system.cpu.branchPred.BTBHitPct             99.984171                       # BTB Hit Percentage
system.cpu.branchPred.RASUsed                 1050570                       # Number of times the RAS was used to get a target.
system.cpu.branchPred.RASIncorrect                325                       # Number of incorrect RAS predictions.
system.cpu.branchPred.indirectLookups          434000                       # Number of indirect predictor lookups.
system.cpu.branchPred.indirectHits             300030                       # Number of indirect target hits.
system.cpu.branchPred.indirectMisses           133970                       # Number of indirect misses.
system.cpu.branchPred.indirectMispredicted         1037                       # Number of mispredicted indirect branches.
system.cpu.dcache.demand_hits::.cpu.data     34771169                       # number of demand (read+write) hits
system.cpu.dcache.demand_hits::total         34771169                       # number of demand (read+write) hits
system.cpu.dcache.overall_hits::.cpu.data     34774488                       # number of overall hits
system.cpu.dcache.overall_hits::total        34774488                       # number of overall hits
system.cpu.dcache.demand_misses::.cpu.data        73580                       # number of demand (read+write) misses
system.cpu.dcache.demand_misses::total          73580                       # number of demand (read+write) misses
system.cpu.dcache.overall_misses::.cpu.data        73622                       # number of overall misses
system.cpu.dcache.overall_misses::total         73622                       # number of overall misses
system.cpu.dcache.demand_miss_latency::.cpu.data   6240106000                       # number of demand (read+write) miss cycles
system.cpu.dcache.demand_miss_latency::total   6240106000                       # number of demand (read+write) miss cycles
system.cpu.dcache.overall_miss_latency::.cpu.data   6240106000                       # number of overall miss cycles
system.cpu.dcache.overall_miss_latency::total   6240106000                       # number of overall miss cycles
system.cpu.dcache.demand_accesses::.cpu.data     34844749                       # number of demand (read+write) accesses
system.cpu.dcache.demand_accesses::total     34844749                       # number of demand (read+write) accesses
system.cpu.dcache.overall_accesses::.cpu.data     34848110                       # number of overall (read+write) accesses
system.cpu.dcache.overall_accesses::total     34848110                       # number of overall (read+write) accesses
system.cpu.dcache.demand_miss_rate::.cpu.data     0.002112                       # miss rate for demand accesses
system.cpu.dcache.demand_miss_rate::total     0.002112                       # miss rate for demand accesses
system.cpu.dcache.overall_miss_rate::.cpu.data     0.002113                       # miss rate for overall accesses
system.cpu.dcache.overall_miss_rate::total     0.002113                       # miss rate for overall accesses
system.cpu.dcache.demand_avg_miss_latency::.cpu.data 84807.094319                       # average overall miss latency
system.cpu.dcache.demand_avg_miss_latency::total 84807.094319                       # average overall miss latency
system.cpu.dcache.overall_avg_miss_latency::.cpu.data 84758.713428                       # average overall miss latency
system.cpu.dcache.overall_avg_miss_latency::total 84758.713428                       # average overall miss latency
system.cpu.dcache.blocked_cycles::no_mshrs            0                       # number of cycles access was blocked
system.cpu.dcache.blocked_cycles::no_targets            0                       # number of cycles access was blocked
system.cpu.dcache.blocked::no_mshrs                 0                       # number of cycles access was blocked
system.cpu.dcache.blocked::no_targets               0                       # number of cycles access was blocked
system.cpu.dcache.avg_blocked_cycles::no_mshrs          nan                       # average number of cycles each access was blocked
system.cpu.dcache.avg_blocked_cycles::no_targets          nan                       # average number of cycles each access was blocked
system.cpu.dcache.writebacks::.writebacks        49921                       # number of writebacks
system.cpu.dcache.writebacks::total             49921                       # number of writebacks
system.cpu.dcache.demand_mshr_hits::.cpu.data        19574                       # number of demand (read+write) MSHR hits
system.cpu.dcache.demand_mshr_hits::total        19574                       # number of demand (read+write) MSHR hits
system.cpu.dcache.overall_mshr_hits::.cpu.data        19574                       # number of overall MSHR hits
system.cpu.dcache.overall_mshr_hits::total        19574                       # number of overall MSHR hits
system.cpu.dcache.demand_mshr_misses::.cpu.data        54006                       # number of demand (read+write) MSHR misses
system.cpu.dcache.demand_mshr_misses::total        54006                       # number of demand (read+write) MSHR misses
system.cpu.dcache.overall_mshr_misses::.cpu.data        54043                       # number of overall MSHR misses
system.cpu.dcache.overall_mshr_misses::total        54043                       # number of overall MSHR misses
system.cpu.dcache.demand_mshr_miss_latency::.cpu.data   4682751000                       # number of demand (read+write) MSHR miss cycles
system.cpu.dcache.demand_mshr_miss_latency::total   4682751000                       # number of demand (read+write) MSHR miss cycles
system.cpu.dcache.overall_mshr_miss_latency::.cpu.data   4684630000                       # number of overall MSHR miss cycles
system.cpu.dcache.overall_mshr_miss_latency::total   4684630000                       # number of overall MSHR miss cycles
system.cpu.dcache.demand_mshr_miss_rate::.cpu.data     0.001550                       # mshr miss rate for demand accesses
system.cpu.dcache.demand_mshr_miss_rate::total     0.001550                       # mshr miss rate for demand accesses
system.cpu.dcache.overall_mshr_miss_rate::.cpu.data     0.001551                       # mshr miss rate for overall accesses
system.cpu.dcache.overall_mshr_miss_rate::total     0.001551                       # mshr miss rate for overall accesses
system.cpu.dcache.demand_avg_mshr_miss_latency::.cpu.data 86707.976891                       # average overall mshr miss latency
system.cpu.dcache.demand_avg_mshr_miss_latency::total 86707.976891                       # average overall mshr miss latency
system.cpu.dcache.overall_avg_mshr_miss_latency::.cpu.data 86683.381752                       # average overall mshr miss latency
system.cpu.dcache.overall_avg_mshr_miss_latency::total 86683.381752                       # average overall mshr miss latency
system.cpu.dcache.replacements                  53019                       # number of replacements
system.cpu.dcache.ReadReq_hits::.cpu.data     20527748                       # number of ReadReq hits
system.cpu.dcache.ReadReq_hits::total        20527748                       # number of ReadReq hits
system.cpu.dcache.ReadReq_misses::.cpu.data        18232                       # number of ReadReq misses
system.cpu.dcache.ReadReq_misses::total         18232                       # number of ReadReq misses
system.cpu.dcache.ReadReq_miss_latency::.cpu.data    532443000                       # number of ReadReq miss cycles
system.cpu.dcache.ReadReq_miss_latency::total    532443000                       # number of ReadReq miss cycles
system.cpu.dcache.ReadReq_accesses::.cpu.data     20545980                       # number of ReadReq accesses(hits+misses)
system.cpu.dcache.ReadReq_accesses::total     20545980                       # number of ReadReq accesses(hits+misses)
system.cpu.dcache.ReadReq_miss_rate::.cpu.data     0.000887                       # miss rate for ReadReq accesses
system.cpu.dcache.ReadReq_miss_rate::total     0.000887                       # miss rate for ReadReq accesses
system.cpu.dcache.ReadReq_avg_miss_latency::.cpu.data 29203.762615                       # average ReadReq miss latency
system.cpu.dcache.ReadReq_avg_miss_latency::total 29203.762615                       # average ReadReq miss latency
system.cpu.dcache.ReadReq_mshr_hits::.cpu.data         3045                       # number of ReadReq MSHR hits
system.cpu.dcache.ReadReq_mshr_hits::total         3045                       # number of ReadReq MSHR hits
system.cpu.dcache.ReadReq_mshr_misses::.cpu.data        15187                       # number of ReadReq MSHR misses
system.cpu.dcache.ReadReq_mshr_misses::total        15187                       # number of ReadReq MSHR misses
system.cpu.dcache.ReadReq_mshr_miss_latency::.cpu.data    408632000                       # number of ReadReq MSHR miss cycles
system.cpu.dcache.ReadReq_mshr_miss_latency::total    408632000                       # number of ReadReq MSHR miss cycles
system.cpu.dcache.ReadReq_mshr_miss_rate::.cpu.data     0.000739                       # mshr miss rate for ReadReq accesses
system.cpu.dcache.ReadReq_mshr_miss_rate::total     0.000739                       # mshr miss rate for ReadReq accesses
system.cpu.dcache.ReadReq_avg_mshr_miss_latency::.cpu.data 26906.696517                       # average ReadReq mshr miss latency
system.cpu.dcache.ReadReq_avg_mshr_miss_latency::total 26906.696517                       # average ReadReq mshr miss latency
system.cpu.dcache.WriteReq_hits::.cpu.data     14243421                       # number of WriteReq hits
system.cpu.dcache.WriteReq_hits::total       14243421                       # number of WriteReq hits
system.cpu.dcache.WriteReq_misses::.cpu.data        55348                       # number of WriteReq misses
system.cpu.dcache.WriteReq_misses::total        55348                       # number of WriteReq misses
system.cpu.dcache.WriteReq_miss_latency::.cpu.data   5707663000                       # number of WriteReq miss cycles
system.cpu.dcache.WriteReq_miss_latency::total   5707663000                       # number of WriteReq miss cycles
system.cpu.dcache.WriteReq_accesses::.cpu.data     14298769                       # number of WriteReq accesses(hits+misses)
system.cpu.dcache.WriteReq_accesses::total     14298769                       # number of WriteReq accesses(hits+misses)
system.cpu.dcache.WriteReq_miss_rate::.cpu.data     0.003871                       # miss rate for WriteReq accesses
system.cpu.dcache.WriteReq_miss_rate::total     0.003871                       # miss rate for WriteReq accesses
system.cpu.dcache.WriteReq_avg_miss_latency::.cpu.data 103123.202284                       # average WriteReq miss latency
system.cpu.dcache.WriteReq_avg_miss_latency::total 103123.202284                       # average WriteReq miss latency
system.cpu.dcache.WriteReq_mshr_hits::.cpu.data        16529                       # number of WriteReq MSHR hits
system.cpu.dcache.WriteReq_mshr_hits::total        16529                       # number of WriteReq MSHR hits
system.cpu.dcache.WriteReq_mshr_misses::.cpu.data        38819                       # number of WriteReq MSHR misses
system.cpu.dcache.WriteReq_mshr_misses::total        38819                       # number of WriteReq MSHR misses
system.cpu.dcache.WriteReq_mshr_miss_latency::.cpu.data   4274119000                       # number of WriteReq MSHR miss cycles
system.cpu.dcache.WriteReq_mshr_miss_latency::total   4274119000                       # number of WriteReq MSHR miss cycles
system.cpu.dcache.WriteReq_mshr_miss_rate::.cpu.data     0.002715                       # mshr miss rate for WriteReq accesses
system.cpu.dcache.WriteReq_mshr_miss_rate::total     0.002715                       # mshr miss rate for WriteReq accesses
system.cpu.dcache.WriteReq_avg_mshr_miss_latency::.cpu.data 110103.789381                       # average WriteReq mshr miss latency
system.cpu.dcache.WriteReq_avg_mshr_miss_latency::total 110103.789381                       # average WriteReq mshr miss latency
system.cpu.dcache.SoftPFReq_hits::.cpu.data         3319                       # number of SoftPFReq hits
system.cpu.dcache.SoftPFReq_hits::total          3319                       # number of SoftPFReq hits
system.cpu.dcache.SoftPFReq_misses::.cpu.data           42                       # number of SoftPFReq misses
system.cpu.dcache.SoftPFReq_misses::total           42                       # number of SoftPFReq misses
system.cpu.dcache.SoftPFReq_accesses::.cpu.data         3361                       # number of SoftPFReq accesses(hits+misses)
system.cpu.dcache.SoftPFReq_accesses::total         3361                       # number of SoftPFReq accesses(hits+misses)
system.cpu.dcache.SoftPFReq_miss_rate::.cpu.data     0.012496                       # miss rate for SoftPFReq accesses
system.cpu.dcache.SoftPFReq_miss_rate::total     0.012496                       # miss rate for SoftPFReq accesses
system.cpu.dcache.SoftPFReq_mshr_misses::.cpu.data           37                       # number of SoftPFReq MSHR misses
system.cpu.dcache.SoftPFReq_mshr_misses::total           37                       # number of SoftPFReq MSHR misses
system.cpu.dcache.SoftPFReq_mshr_miss_latency::.cpu.data      1879000                       # number of SoftPFReq MSHR miss cycles
system.cpu.dcache.SoftPFReq_mshr_miss_latency::total      1879000                       # number of SoftPFReq MSHR miss cycles
system.cpu.dcache.SoftPFReq_mshr_miss_rate::.cpu.data     0.011009                       # mshr miss rate for SoftPFReq accesses
system.cpu.dcache.SoftPFReq_mshr_miss_rate::total     0.011009                       # mshr miss rate for SoftPFReq accesses
system.cpu.dcache.SoftPFReq_avg_mshr_miss_latency::.cpu.data 50783.783784                       # average SoftPFReq mshr miss latency
system.cpu.dcache.SoftPFReq_avg_mshr_miss_latency::total 50783.783784                       # average SoftPFReq mshr miss latency
system.cpu.dcache.LoadLockedReq_hits::.cpu.data        89080                       # number of LoadLockedReq hits
system.cpu.dcache.LoadLockedReq_hits::total        89080                       # number of LoadLockedReq hits
system.cpu.dcache.LoadLockedReq_accesses::.cpu.data        89080                       # number of LoadLockedReq accesses(hits+misses)
system.cpu.dcache.LoadLockedReq_accesses::total        89080                       # number of LoadLockedReq accesses(hits+misses)
system.cpu.dcache.StoreCondReq_hits::.cpu.data        89080                       # number of StoreCondReq hits
system.cpu.dcache.StoreCondReq_hits::total        89080                       # number of StoreCondReq hits
system.cpu.dcache.StoreCondReq_accesses::.cpu.data        89080                       # number of StoreCondReq accesses(hits+misses)
system.cpu.dcache.StoreCondReq_accesses::total        89080                       # number of StoreCondReq accesses(hits+misses)
system.cpu.dcache.power_state.pwrStateResidencyTicks::UNDEFINED 123106990000                       # Cumulative time (in ticks) in various power states
system.cpu.dcache.tags.tagsinuse          1020.876498                       # Cycle average of tags in use
system.cpu.dcache.tags.total_refs            35006691                       # Total number of references to valid blocks.
system.cpu.dcache.tags.sampled_refs             54043                       # Sample count of references to valid blocks.
system.cpu.dcache.tags.avg_refs            647.756250                       # Average number of references to valid blocks.
system.cpu.dcache.tags.warmup_cycle            223000                       # Cycle when the warmup percentage was hit.
system.cpu.dcache.tags.occ_blocks::.cpu.data  1020.876498                       # Average occupied blocks per requestor
system.cpu.dcache.tags.occ_percent::.cpu.data     0.996950                       # Average percentage of cache occupancy
system.cpu.dcache.tags.occ_percent::total     0.996950                       # Average percentage of cache occupancy
system.cpu.dcache.tags.occ_task_id_blocks::1024         1024                       # Occupied blocks per task id
system.cpu.dcache.tags.age_task_id_blocks_1024::0            1                       # Occupied blocks per task id
system.cpu.dcache.tags.age_task_id_blocks_1024::1           20                       # Occupied blocks per task id
system.cpu.dcache.tags.age_task_id_blocks_1024::2          246                       # Occupied blocks per task id
system.cpu.dcache.tags.age_task_id_blocks_1024::3          701                       # Occupied blocks per task id
system.cpu.dcache.tags.age_task_id_blocks_1024::4           56                       # Occupied blocks per task id
system.cpu.dcache.tags.occ_task_id_percent::1024            1                       # Percentage of cache occupancy per task id
system.cpu.dcache.tags.tag_accesses          70106583                       # Number of tag accesses
system.cpu.dcache.tags.data_accesses         70106583                       # Number of data accesses
system.cpu.dcache.tags.power_state.pwrStateResidencyTicks::UNDEFINED 123106990000                       # Cumulative time (in ticks) in various power states
system.cpu.dtb.instHits                             0                       # ITB inst hits
system.cpu.dtb.instMisses                           0                       # ITB inst misses
system.cpu.dtb.readHits                             0                       # DTB read hits
system.cpu.dtb.readMisses                           0                       # DTB read misses
system.cpu.dtb.writeHits                            0                       # DTB write hits
system.cpu.dtb.writeMisses                          0                       # DTB write misses
system.cpu.dtb.inserts                              0                       # Number of times an entry is inserted into the TLB
system.cpu.dtb.flushTlb                             0                       # Number of times complete TLB was flushed
system.cpu.dtb.flushTlbMva                          0                       # Number of times TLB was flushed by MVA
system.cpu.dtb.flushTlbMvaAsid                      0                       # Number of times TLB was flushed by MVA & ASID
system.cpu.dtb.flushTlbAsid                         0                       # Number of times TLB was flushed by ASID
system.cpu.dtb.flushedEntries                       0                       # Number of entries that have been flushed from TLB
system.cpu.dtb.alignFaults                          0                       # Number of TLB faults due to alignment restrictions
system.cpu.dtb.prefetchFaults                       0                       # Number of TLB faults due to prefetch
system.cpu.dtb.domainFaults                         0                       # Number of TLB faults due to domain restrictions
system.cpu.dtb.permsFaults                          0                       # Number of TLB faults due to permissions restrictions
system.cpu.dtb.readAccesses                         0                       # DTB read accesses
system.cpu.dtb.writeAccesses                        0                       # DTB write accesses
system.cpu.dtb.instAccesses                         0                       # ITB inst accesses
system.cpu.dtb.hits                                 0                       # Total TLB (inst and data) hits
system.cpu.dtb.misses                               0                       # Total TLB (inst and data) misses
system.cpu.dtb.accesses                             0                       # Total TLB (inst and data) accesses
system.cpu.dtb.stage2_mmu.stage2_tlb.instHits            0                       # ITB inst hits
system.cpu.dtb.stage2_mmu.stage2_tlb.instMisses            0                       # ITB inst misses
system.cpu.dtb.stage2_mmu.stage2_tlb.readHits            0                       # DTB read hits
system.cpu.dtb.stage2_mmu.stage2_tlb.readMisses            0                       # DTB read misses
system.cpu.dtb.stage2_mmu.stage2_tlb.writeHits            0                       # DTB write hits
system.cpu.dtb.stage2_mmu.stage2_tlb.writeMisses            0                       # DTB write misses
system.cpu.dtb.stage2_mmu.stage2_tlb.inserts            0                       # Number of times an entry is inserted into the TLB
system.cpu.dtb.stage2_mmu.stage2_tlb.flushTlb            0                       # Number of times complete TLB was flushed
system.cpu.dtb.stage2_mmu.stage2_tlb.flushTlbMva            0                       # Number of times TLB was flushed by MVA
system.cpu.dtb.stage2_mmu.stage2_tlb.flushTlbMvaAsid            0                       # Number of times TLB was flushed by MVA & ASID
system.cpu.dtb.stage2_mmu.stage2_tlb.flushTlbAsid            0                       # Number of times TLB was flushed by ASID
system.cpu.dtb.stage2_mmu.stage2_tlb.flushedEntries            0                       # Number of entries that have been flushed from TLB
system.cpu.dtb.stage2_mmu.stage2_tlb.alignFaults            0                       # Number of TLB faults due to alignment restrictions
system.cpu.dtb.stage2_mmu.stage2_tlb.prefetchFaults            0                       # Number of TLB faults due to prefetch
system.cpu.dtb.stage2_mmu.stage2_tlb.domainFaults            0                       # Number of TLB faults due to domain restrictions
system.cpu.dtb.stage2_mmu.stage2_tlb.permsFaults            0                       # Number of TLB faults due to permissions restrictions
system.cpu.dtb.stage2_mmu.stage2_tlb.readAccesses            0                       # DTB read accesses
system.cpu.dtb.stage2_mmu.stage2_tlb.writeAccesses            0                       # DTB write accesses
system.cpu.dtb.stage2_mmu.stage2_tlb.instAccesses            0                       # ITB inst accesses
system.cpu.dtb.stage2_mmu.stage2_tlb.hits            0                       # Total TLB (inst and data) hits
system.cpu.dtb.stage2_mmu.stage2_tlb.misses            0                       # Total TLB (inst and data) misses
system.cpu.dtb.stage2_mmu.stage2_tlb.accesses            0                       # Total TLB (inst and data) accesses
system.cpu.dtb.stage2_mmu.stage2_tlb.walker.walks            0                       # Table walker walks requested
system.cpu.dtb.stage2_mmu.stage2_tlb.walker.requestOrigin_Requested::Data            0                       # Table walker requests started/completed, data/inst
system.cpu.dtb.stage2_mmu.stage2_tlb.walker.requestOrigin_Requested::Inst            0                       # Table walker requests started/completed, data/inst
system.cpu.dtb.stage2_mmu.stage2_tlb.walker.requestOrigin_Requested::total            0                       # Table walker requests started/completed, data/inst
system.cpu.dtb.stage2_mmu.stage2_tlb.walker.requestOrigin_Completed::Data            0                       # Table walker requests started/completed, data/inst
system.cpu.dtb.stage2_mmu.stage2_tlb.walker.requestOrigin_Completed::Inst            0                       # Table walker requests started/completed, data/inst
system.cpu.dtb.stage2_mmu.stage2_tlb.walker.requestOrigin_Completed::total            0                       # Table walker requests started/completed, data/inst
system.cpu.dtb.stage2_mmu.stage2_tlb.walker.requestOrigin::total            0                       # Table walker requests started/completed, data/inst
system.cpu.dtb.stage2_mmu.stage2_tlb.walker.power_state.pwrStateResidencyTicks::UNDEFINED 123106990000                       # Cumulative time (in ticks) in various power states
system.cpu.dtb.walker.walks                         0                       # Table walker walks requested
system.cpu.dtb.walker.requestOrigin_Requested::Data            0                       # Table walker requests started/completed, data/inst
system.cpu.dtb.walker.requestOrigin_Requested::Inst            0                       # Table walker requests started/completed, data/inst
system.cpu.dtb.walker.requestOrigin_Requested::total            0                       # Table walker requests started/completed, data/inst
system.cpu.dtb.walker.requestOrigin_Completed::Data            0                       # Table walker requests started/completed, data/inst
system.cpu.dtb.walker.requestOrigin_Completed::Inst            0                       # Table walker requests started/completed, data/inst
system.cpu.dtb.walker.requestOrigin_Completed::total            0                       # Table walker requests started/completed, data/inst
system.cpu.dtb.walker.requestOrigin::total            0                       # Table walker requests started/completed, data/inst
system.cpu.dtb.walker.power_state.pwrStateResidencyTicks::UNDEFINED 123106990000                       # Cumulative time (in ticks) in various power states
system.cpu.fetch2.intInstructions            49048991                       # Number of integer instructions successfully decoded
system.cpu.fetch2.fpInstructions                    0                       # Number of floating point instructions successfully decoded
system.cpu.fetch2.vecInstructions                   0                       # Number of SIMD instructions successfully decoded
system.cpu.fetch2.loadInstructions           17102341                       # Number of memory load instructions successfully decoded
system.cpu.fetch2.storeInstructions           9762837                       # Number of memory store instructions successfully decoded
system.cpu.fetch2.amoInstructions                   0                       # Number of memory atomic instructions successfully decoded
system.cpu.icache.demand_hits::.cpu.inst     27560644                       # number of demand (read+write) hits
system.cpu.icache.demand_hits::total         27560644                       # number of demand (read+write) hits
system.cpu.icache.overall_hits::.cpu.inst     27560644                       # number of overall hits
system.cpu.icache.overall_hits::total        27560644                       # number of overall hits
system.cpu.icache.demand_misses::.cpu.inst       535120                       # number of demand (read+write) misses
system.cpu.icache.demand_misses::total         535120                       # number of demand (read+write) misses
system.cpu.icache.overall_misses::.cpu.inst       535120                       # number of overall misses
system.cpu.icache.overall_misses::total        535120                       # number of overall misses
system.cpu.icache.demand_miss_latency::.cpu.inst  13956547000                       # number of demand (read+write) miss cycles
system.cpu.icache.demand_miss_latency::total  13956547000                       # number of demand (read+write) miss cycles
system.cpu.icache.overall_miss_latency::.cpu.inst  13956547000                       # number of overall miss cycles
system.cpu.icache.overall_miss_latency::total  13956547000                       # number of overall miss cycles
system.cpu.icache.demand_accesses::.cpu.inst     28095764                       # number of demand (read+write) accesses
system.cpu.icache.demand_accesses::total     28095764                       # number of demand (read+write) accesses
system.cpu.icache.overall_accesses::.cpu.inst     28095764                       # number of overall (read+write) accesses
system.cpu.icache.overall_accesses::total     28095764                       # number of overall (read+write) accesses
system.cpu.icache.demand_miss_rate::.cpu.inst     0.019046                       # miss rate for demand accesses
system.cpu.icache.demand_miss_rate::total     0.019046                       # miss rate for demand accesses
system.cpu.icache.overall_miss_rate::.cpu.inst     0.019046                       # miss rate for overall accesses
system.cpu.icache.overall_miss_rate::total     0.019046                       # miss rate for overall accesses
system.cpu.icache.demand_avg_miss_latency::.cpu.inst 26081.153760                       # average overall miss latency
system.cpu.icache.demand_avg_miss_latency::total 26081.153760                       # average overall miss latency
system.cpu.icache.overall_avg_miss_latency::.cpu.inst 26081.153760                       # average overall miss latency
system.cpu.icache.overall_avg_miss_latency::total 26081.153760                       # average overall miss latency
system.cpu.icache.blocked_cycles::no_mshrs            0                       # number of cycles access was blocked
system.cpu.icache.blocked_cycles::no_targets            0                       # number of cycles access was blocked
system.cpu.icache.blocked::no_mshrs                 0                       # number of cycles access was blocked
system.cpu.icache.blocked::no_targets               0                       # number of cycles access was blocked
system.cpu.icache.avg_blocked_cycles::no_mshrs          nan                       # average number of cycles each access was blocked
system.cpu.icache.avg_blocked_cycles::no_targets          nan                       # average number of cycles each access was blocked
system.cpu.icache.writebacks::.writebacks       534720                       # number of writebacks
system.cpu.icache.writebacks::total            534720                       # number of writebacks
system.cpu.icache.demand_mshr_misses::.cpu.inst       535120                       # number of demand (read+write) MSHR misses
system.cpu.icache.demand_mshr_misses::total       535120                       # number of demand (read+write) MSHR misses
system.cpu.icache.overall_mshr_misses::.cpu.inst       535120                       # number of overall MSHR misses
system.cpu.icache.overall_mshr_misses::total       535120                       # number of overall MSHR misses
system.cpu.icache.demand_mshr_miss_latency::.cpu.inst  12886307000                       # number of demand (read+write) MSHR miss cycles
system.cpu.icache.demand_mshr_miss_latency::total  12886307000                       # number of demand (read+write) MSHR miss cycles
system.cpu.icache.overall_mshr_miss_latency::.cpu.inst  12886307000                       # number of overall MSHR miss cycles
system.cpu.icache.overall_mshr_miss_latency::total  12886307000                       # number of overall MSHR miss cycles
system.cpu.icache.demand_mshr_miss_rate::.cpu.inst     0.019046                       # mshr miss rate for demand accesses
system.cpu.icache.demand_mshr_miss_rate::total     0.019046                       # mshr miss rate for demand accesses
system.cpu.icache.overall_mshr_miss_rate::.cpu.inst     0.019046                       # mshr miss rate for overall accesses
system.cpu.icache.overall_mshr_miss_rate::total     0.019046                       # mshr miss rate for overall accesses
system.cpu.icache.demand_avg_mshr_miss_latency::.cpu.inst 24081.153760                       # average overall mshr miss latency
system.cpu.icache.demand_avg_mshr_miss_latency::total 24081.153760                       # average overall mshr miss latency
system.cpu.icache.overall_avg_mshr_miss_latency::.cpu.inst 24081.153760                       # average overall mshr miss latency
system.cpu.icache.overall_avg_mshr_miss_latency::total 24081.153760                       # average overall mshr miss latency
system.cpu.icache.replacements                 534720                       # number of replacements
system.cpu.icache.ReadReq_hits::.cpu.inst     27560644                       # number of ReadReq hits
system.cpu.icache.ReadReq_hits::total        27560644                       # number of ReadReq hits
system.cpu.icache.ReadReq_misses::.cpu.inst       535120                       # number of ReadReq misses
system.cpu.icache.ReadReq_misses::total        535120                       # number of ReadReq misses
system.cpu.icache.ReadReq_miss_latency::.cpu.inst  13956547000                       # number of ReadReq miss cycles
system.cpu.icache.ReadReq_miss_latency::total  13956547000                       # number of ReadReq miss cycles
system.cpu.icache.ReadReq_accesses::.cpu.inst     28095764                       # number of ReadReq accesses(hits+misses)
system.cpu.icache.ReadReq_accesses::total     28095764                       # number of ReadReq accesses(hits+misses)
system.cpu.icache.ReadReq_miss_rate::.cpu.inst     0.019046                       # miss rate for ReadReq accesses
system.cpu.icache.ReadReq_miss_rate::total     0.019046                       # miss rate for ReadReq accesses
system.cpu.icache.ReadReq_avg_miss_latency::.cpu.inst 26081.153760                       # average ReadReq miss latency
system.cpu.icache.ReadReq_avg_miss_latency::total 26081.153760                       # average ReadReq miss latency
system.cpu.icache.ReadReq_mshr_misses::.cpu.inst       535120                       # number of ReadReq MSHR misses
system.cpu.icache.ReadReq_mshr_misses::total       535120                       # number of ReadReq MSHR misses
system.cpu.icache.ReadReq_mshr_miss_latency::.cpu.inst  12886307000                       # number of ReadReq MSHR miss cycles
system.cpu.icache.ReadReq_mshr_miss_latency::total  12886307000                       # number of ReadReq MSHR miss cycles
system.cpu.icache.ReadReq_mshr_miss_rate::.cpu.inst     0.019046                       # mshr miss rate for ReadReq accesses
system.cpu.icache.ReadReq_mshr_miss_rate::total     0.019046                       # mshr miss rate for ReadReq accesses
system.cpu.icache.ReadReq_avg_mshr_miss_latency::.cpu.inst 24081.153760                       # average ReadReq mshr miss latency
system.cpu.icache.ReadReq_avg_mshr_miss_latency::total 24081.153760                       # average ReadReq mshr miss latency
system.cpu.icache.power_state.pwrStateResidencyTicks::UNDEFINED 123106990000                       # Cumulative time (in ticks) in various power states
system.cpu.icache.tags.tagsinuse           399.833021                       # Cycle average of tags in use
system.cpu.icache.tags.total_refs            28095764                       # Total number of references to valid blocks.
system.cpu.icache.tags.sampled_refs            535120                       # Sample count of references to valid blocks.
system.cpu.icache.tags.avg_refs             52.503670                       # Average number of references to valid blocks.
system.cpu.icache.tags.warmup_cycle            108000                       # Cycle when the warmup percentage was hit.
system.cpu.icache.tags.occ_blocks::.cpu.inst   399.833021                       # Average occupied blocks per requestor
system.cpu.icache.tags.occ_percent::.cpu.inst     0.780924                       # Average percentage of cache occupancy
system.cpu.icache.tags.occ_percent::total     0.780924                       # Average percentage of cache occupancy
system.cpu.icache.tags.occ_task_id_blocks::1024          400                       # Occupied blocks per task id
system.cpu.icache.tags.age_task_id_blocks_1024::0            8                       # Occupied blocks per task id
system.cpu.icache.tags.age_task_id_blocks_1024::3            3                       # Occupied blocks per task id
system.cpu.icache.tags.age_task_id_blocks_1024::4          389                       # Occupied blocks per task id
system.cpu.icache.tags.occ_task_id_percent::1024     0.781250                       # Percentage of cache occupancy per task id
system.cpu.icache.tags.tag_accesses          56726648                       # Number of tag accesses
system.cpu.icache.tags.data_accesses         56726648                       # Number of data accesses
system.cpu.icache.tags.power_state.pwrStateResidencyTicks::UNDEFINED 123106990000                       # Cumulative time (in ticks) in various power states
system.cpu.itb.instHits                             0                       # ITB inst hits
system.cpu.itb.instMisses                           0                       # ITB inst misses
system.cpu.itb.readHits                             0                       # DTB read hits
system.cpu.itb.readMisses                           0                       # DTB read misses
system.cpu.itb.writeHits                            0                       # DTB write hits
system.cpu.itb.writeMisses                          0                       # DTB write misses
system.cpu.itb.inserts                              0                       # Number of times an entry is inserted into the TLB
system.cpu.itb.flushTlb                             0                       # Number of times complete TLB was flushed
system.cpu.itb.flushTlbMva                          0                       # Number of times TLB was flushed by MVA
system.cpu.itb.flushTlbMvaAsid                      0                       # Number of times TLB was flushed by MVA & ASID
system.cpu.itb.flushTlbAsid                         0                       # Number of times TLB was flushed by ASID
system.cpu.itb.flushedEntries                       0                       # Number of entries that have been flushed from TLB
system.cpu.itb.alignFaults                          0                       # Number of TLB faults due to alignment restrictions
system.cpu.itb.prefetchFaults                       0                       # Number of TLB faults due to prefetch
system.cpu.itb.domainFaults                         0                       # Number of TLB faults due to domain restrictions
system.cpu.itb.permsFaults                          0                       # Number of TLB faults due to permissions restrictions
system.cpu.itb.readAccesses                         0                       # DTB read accesses
system.cpu.itb.writeAccesses                        0                       # DTB write accesses
system.cpu.itb.instAccesses                         0                       # ITB inst accesses
system.cpu.itb.hits                                 0                       # Total TLB (inst and data) hits
system.cpu.itb.misses                               0                       # Total TLB (inst and data) misses
system.cpu.itb.accesses                             0                       # Total TLB (inst and data) accesses
system.cpu.itb.stage2_mmu.stage2_tlb.instHits            0                       # ITB inst hits
system.cpu.itb.stage2_mmu.stage2_tlb.instMisses            0                       # ITB inst misses
system.cpu.itb.stage2_mmu.stage2_tlb.readHits            0                       # DTB read hits
system.cpu.itb.stage2_mmu.stage2_tlb.readMisses            0                       # DTB read misses
system.cpu.itb.stage2_mmu.stage2_tlb.writeHits            0                       # DTB write hits
system.cpu.itb.stage2_mmu.stage2_tlb.writeMisses            0                       # DTB write misses
system.cpu.itb.stage2_mmu.stage2_tlb.inserts            0                       # Number of times an entry is inserted into the TLB
system.cpu.itb.stage2_mmu.stage2_tlb.flushTlb            0                       # Number of times complete TLB was flushed
system.cpu.itb.stage2_mmu.stage2_tlb.flushTlbMva            0                       # Number of times TLB was flushed by MVA
system.cpu.itb.stage2_mmu.stage2_tlb.flushTlbMvaAsid            0                       # Number of times TLB was flushed by MVA & ASID
system.cpu.itb.stage2_mmu.stage2_tlb.flushTlbAsid            0                       # Number of times TLB was flushed by ASID
system.cpu.itb.stage2_mmu.stage2_tlb.flushedEntries            0                       # Number of entries that have been flushed from TLB
system.cpu.itb.stage2_mmu.stage2_tlb.alignFaults            0                       # Number of TLB faults due to alignment restrictions
system.cpu.itb.stage2_mmu.stage2_tlb.prefetchFaults            0                       # Number of TLB faults due to prefetch
system.cpu.itb.stage2_mmu.stage2_tlb.domainFaults            0                       # Number of TLB faults due to domain restrictions
system.cpu.itb.stage2_mmu.stage2_tlb.permsFaults            0                       # Number of TLB faults due to permissions restrictions
system.cpu.itb.stage2_mmu.stage2_tlb.readAccesses            0                       # DTB read accesses
system.cpu.itb.stage2_mmu.stage2_tlb.writeAccesses            0                       # DTB write accesses
system.cpu.itb.stage2_mmu.stage2_tlb.instAccesses            0                       # ITB inst accesses
system.cpu.itb.stage2_mmu.stage2_tlb.hits            0                       # Total TLB (inst and data) hits
system.cpu.itb.stage2_mmu.stage2_tlb.misses            0                       # Total TLB (inst and data) misses
system.cpu.itb.stage2_mmu.stage2_tlb.accesses            0                       # Total TLB (inst and data) accesses
system.cpu.itb.stage2_mmu.stage2_tlb.walker.walks            0                       # Table walker walks requested
system.cpu.itb.stage2_mmu.stage2_tlb.walker.requestOrigin_Requested::Data            0                       # Table walker requests started/completed, data/inst
system.cpu.itb.stage2_mmu.stage2_tlb.walker.requestOrigin_Requested::Inst            0                       # Table walker requests started/completed, data/inst
system.cpu.itb.stage2_mmu.stage2_tlb.walker.requestOrigin_Requested::total            0                       # Table walker requests started/completed, data/inst
system.cpu.itb.stage2_mmu.stage2_tlb.walker.requestOrigin_Completed::Data            0                       # Table walker requests started/completed, data/inst
system.cpu.itb.stage2_mmu.stage2_tlb.walker.requestOrigin_Completed::Inst            0                       # Table walker requests started/completed, data/inst
system.cpu.itb.stage2_mmu.stage2_tlb.walker.requestOrigin_Completed::total            0                       # Table walker requests started/completed, data/inst
system.cpu.itb.stage2_mmu.stage2_tlb.walker.requestOrigin::total            0                       # Table walker requests started/completed, data/inst
system.cpu.itb.stage2_mmu.stage2_tlb.walker.power_state.pwrStateResidencyTicks::UNDEFINED 123106990000                       # Cumulative time (in ticks) in various power states
system.cpu.itb.walker.walks                         0                       # Table walker walks requested
system.cpu.itb.walker.requestOrigin_Requested::Data            0                       # Table walker requests started/completed, data/inst
system.cpu.itb.walker.requestOrigin_Requested::Inst            0                       # Table walker requests started/completed, data/inst
system.cpu.itb.walker.requestOrigin_Requested::total            0                       # Table walker requests started/completed, data/inst
system.cpu.itb.walker.requestOrigin_Completed::Data            0                       # Table walker requests started/completed, data/inst
system.cpu.itb.walker.requestOrigin_Completed::Inst            0                       # Table walker requests started/completed, data/inst
system.cpu.itb.walker.requestOrigin_Completed::total            0                       # Table walker requests started/completed, data/inst
system.cpu.itb.walker.requestOrigin::total            0                       # Table walker requests started/completed, data/inst
system.cpu.itb.walker.power_state.pwrStateResidencyTicks::UNDEFINED 123106990000                       # Cumulative time (in ticks) in various power states
system.cpu.power_state.pwrStateResidencyTicks::ON 123106990000                       # Cumulative time (in ticks) in various power states
system.cpu.thread0.numInsts                 100000000                       # Number of Instructions committed
system.cpu.thread0.numOps                   109431286                       # Number of Ops committed
system.cpu.thread0.numMemRefs                       0                       # Number of Memory References
system.cpu_clk_domain.clock                      1000                       # Clock period in ticks
system.cpu_voltage_domain.voltage                   1                       # Voltage in Volts
system.l2.demand_hits::.cpu.inst               534599                       # number of demand (read+write) hits
system.l2.demand_hits::.cpu.data                14699                       # number of demand (read+write) hits
system.l2.demand_hits::total                   549298                       # number of demand (read+write) hits
system.l2.overall_hits::.cpu.inst              534599                       # number of overall hits
system.l2.overall_hits::.cpu.data               14699                       # number of overall hits
system.l2.overall_hits::total                  549298                       # number of overall hits
system.l2.demand_misses::.cpu.inst                521                       # number of demand (read+write) misses
system.l2.demand_misses::.cpu.data              39344                       # number of demand (read+write) misses
system.l2.demand_misses::total                  39865                       # number of demand (read+write) misses
system.l2.overall_misses::.cpu.inst               521                       # number of overall misses
system.l2.overall_misses::.cpu.data             39344                       # number of overall misses
system.l2.overall_misses::total                 39865                       # number of overall misses
system.l2.demand_miss_latency::.cpu.inst     51180000                       # number of demand (read+write) miss cycles
system.l2.demand_miss_latency::.cpu.data   4213777000                       # number of demand (read+write) miss cycles
system.l2.demand_miss_latency::total       4264957000                       # number of demand (read+write) miss cycles
system.l2.overall_miss_latency::.cpu.inst     51180000                       # number of overall miss cycles
system.l2.overall_miss_latency::.cpu.data   4213777000                       # number of overall miss cycles
system.l2.overall_miss_latency::total      4264957000                       # number of overall miss cycles
system.l2.demand_accesses::.cpu.inst           535120                       # number of demand (read+write) accesses
system.l2.demand_accesses::.cpu.data            54043                       # number of demand (read+write) accesses
system.l2.demand_accesses::total               589163                       # number of demand (read+write) accesses
system.l2.overall_accesses::.cpu.inst          535120                       # number of overall (read+write) accesses
system.l2.overall_accesses::.cpu.data           54043                       # number of overall (read+write) accesses
system.l2.overall_accesses::total              589163                       # number of overall (read+write) accesses
system.l2.demand_miss_rate::.cpu.inst        0.000974                       # miss rate for demand accesses
system.l2.demand_miss_rate::.cpu.data        0.728013                       # miss rate for demand accesses
system.l2.demand_miss_rate::total            0.067664                       # miss rate for demand accesses
system.l2.overall_miss_rate::.cpu.inst       0.000974                       # miss rate for overall accesses
system.l2.overall_miss_rate::.cpu.data       0.728013                       # miss rate for overall accesses
system.l2.overall_miss_rate::total           0.067664                       # miss rate for overall accesses
system.l2.demand_avg_miss_latency::.cpu.inst 98234.165067                       # average overall miss latency
system.l2.demand_avg_miss_latency::.cpu.data 107100.879423                       # average overall miss latency
system.l2.demand_avg_miss_latency::total 106984.999373                       # average overall miss latency
system.l2.overall_avg_miss_latency::.cpu.inst 98234.165067                       # average overall miss latency
system.l2.overall_avg_miss_latency::.cpu.data 107100.879423                       # average overall miss latency
system.l2.overall_avg_miss_latency::total 106984.999373                       # average overall miss latency
system.l2.blocked_cycles::no_mshrs                  0                       # number of cycles access was blocked
system.l2.blocked_cycles::no_targets                0                       # number of cycles access was blocked
system.l2.blocked::no_mshrs                         0                       # number of cycles access was blocked
system.l2.blocked::no_targets                       0                       # number of cycles access was blocked
system.l2.avg_blocked_cycles::no_mshrs            nan                       # average number of cycles each access was blocked
system.l2.avg_blocked_cycles::no_targets          nan                       # average number of cycles each access was blocked
system.l2.writebacks::.writebacks                6513                       # number of writebacks
system.l2.writebacks::total                      6513                       # number of writebacks
system.l2.demand_mshr_hits::.cpu.inst               1                       # number of demand (read+write) MSHR hits
system.l2.demand_mshr_hits::.cpu.data               5                       # number of demand (read+write) MSHR hits
system.l2.demand_mshr_hits::total                   6                       # number of demand (read+write) MSHR hits
system.l2.overall_mshr_hits::.cpu.inst              1                       # number of overall MSHR hits
system.l2.overall_mshr_hits::.cpu.data              5                       # number of overall MSHR hits
system.l2.overall_mshr_hits::total                  6                       # number of overall MSHR hits
system.l2.demand_mshr_misses::.cpu.inst           520                       # number of demand (read+write) MSHR misses
system.l2.demand_mshr_misses::.cpu.data         39339                       # number of demand (read+write) MSHR misses
system.l2.demand_mshr_misses::total             39859                       # number of demand (read+write) MSHR misses
system.l2.overall_mshr_misses::.cpu.inst          520                       # number of overall MSHR misses
system.l2.overall_mshr_misses::.cpu.data        39339                       # number of overall MSHR misses
system.l2.overall_mshr_misses::total            39859                       # number of overall MSHR misses
system.l2.demand_mshr_miss_latency::.cpu.inst     40700000                       # number of demand (read+write) MSHR miss cycles
system.l2.demand_mshr_miss_latency::.cpu.data   3426591000                       # number of demand (read+write) MSHR miss cycles
system.l2.demand_mshr_miss_latency::total   3467291000                       # number of demand (read+write) MSHR miss cycles
system.l2.overall_mshr_miss_latency::.cpu.inst     40700000                       # number of overall MSHR miss cycles
system.l2.overall_mshr_miss_latency::.cpu.data   3426591000                       # number of overall MSHR miss cycles
system.l2.overall_mshr_miss_latency::total   3467291000                       # number of overall MSHR miss cycles
system.l2.demand_mshr_miss_rate::.cpu.inst     0.000972                       # mshr miss rate for demand accesses
system.l2.demand_mshr_miss_rate::.cpu.data     0.727920                       # mshr miss rate for demand accesses
system.l2.demand_mshr_miss_rate::total       0.067654                       # mshr miss rate for demand accesses
system.l2.overall_mshr_miss_rate::.cpu.inst     0.000972                       # mshr miss rate for overall accesses
system.l2.overall_mshr_miss_rate::.cpu.data     0.727920                       # mshr miss rate for overall accesses
system.l2.overall_mshr_miss_rate::total      0.067654                       # mshr miss rate for overall accesses
system.l2.demand_avg_mshr_miss_latency::.cpu.inst 78269.230769                       # average overall mshr miss latency
system.l2.demand_avg_mshr_miss_latency::.cpu.data 87104.171433                       # average overall mshr miss latency
system.l2.demand_avg_mshr_miss_latency::total 86988.910911                       # average overall mshr miss latency
system.l2.overall_avg_mshr_miss_latency::.cpu.inst 78269.230769                       # average overall mshr miss latency
system.l2.overall_avg_mshr_miss_latency::.cpu.data 87104.171433                       # average overall mshr miss latency
system.l2.overall_avg_mshr_miss_latency::total 86988.910911                       # average overall mshr miss latency
system.l2.replacements                           7097                       # number of replacements
system.l2.WritebackDirty_hits::.writebacks        49921                       # number of WritebackDirty hits
system.l2.WritebackDirty_hits::total            49921                       # number of WritebackDirty hits
system.l2.WritebackDirty_accesses::.writebacks        49921                       # number of WritebackDirty accesses(hits+misses)
system.l2.WritebackDirty_accesses::total        49921                       # number of WritebackDirty accesses(hits+misses)
system.l2.WritebackClean_hits::.writebacks       534713                       # number of WritebackClean hits
system.l2.WritebackClean_hits::total           534713                       # number of WritebackClean hits
system.l2.WritebackClean_accesses::.writebacks       534713                       # number of WritebackClean accesses(hits+misses)
system.l2.WritebackClean_accesses::total       534713                       # number of WritebackClean accesses(hits+misses)
system.l2.CleanEvict_mshr_misses::.writebacks            1                       # number of CleanEvict MSHR misses
system.l2.CleanEvict_mshr_misses::total             1                       # number of CleanEvict MSHR misses
system.l2.CleanEvict_mshr_miss_rate::.writebacks          inf                       # mshr miss rate for CleanEvict accesses
system.l2.CleanEvict_mshr_miss_rate::total          inf                       # mshr miss rate for CleanEvict accesses
system.l2.ReadExReq_hits::.cpu.data                 9                       # number of ReadExReq hits
system.l2.ReadExReq_hits::total                     9                       # number of ReadExReq hits
system.l2.ReadExReq_misses::.cpu.data           38810                       # number of ReadExReq misses
system.l2.ReadExReq_misses::total               38810                       # number of ReadExReq misses
system.l2.ReadExReq_miss_latency::.cpu.data   4157469000                       # number of ReadExReq miss cycles
system.l2.ReadExReq_miss_latency::total    4157469000                       # number of ReadExReq miss cycles
system.l2.ReadExReq_accesses::.cpu.data         38819                       # number of ReadExReq accesses(hits+misses)
system.l2.ReadExReq_accesses::total             38819                       # number of ReadExReq accesses(hits+misses)
system.l2.ReadExReq_miss_rate::.cpu.data     0.999768                       # miss rate for ReadExReq accesses
system.l2.ReadExReq_miss_rate::total         0.999768                       # miss rate for ReadExReq accesses
system.l2.ReadExReq_avg_miss_latency::.cpu.data 107123.653698                       # average ReadExReq miss latency
system.l2.ReadExReq_avg_miss_latency::total 107123.653698                       # average ReadExReq miss latency
system.l2.ReadExReq_mshr_misses::.cpu.data        38810                       # number of ReadExReq MSHR misses
system.l2.ReadExReq_mshr_misses::total          38810                       # number of ReadExReq MSHR misses
system.l2.ReadExReq_mshr_miss_latency::.cpu.data   3381269000                       # number of ReadExReq MSHR miss cycles
system.l2.ReadExReq_mshr_miss_latency::total   3381269000                       # number of ReadExReq MSHR miss cycles
system.l2.ReadExReq_mshr_miss_rate::.cpu.data     0.999768                       # mshr miss rate for ReadExReq accesses
system.l2.ReadExReq_mshr_miss_rate::total     0.999768                       # mshr miss rate for ReadExReq accesses
system.l2.ReadExReq_avg_mshr_miss_latency::.cpu.data 87123.653698                       # average ReadExReq mshr miss latency
system.l2.ReadExReq_avg_mshr_miss_latency::total 87123.653698                       # average ReadExReq mshr miss latency
system.l2.ReadCleanReq_hits::.cpu.inst         534599                       # number of ReadCleanReq hits
system.l2.ReadCleanReq_hits::total             534599                       # number of ReadCleanReq hits
system.l2.ReadCleanReq_misses::.cpu.inst          521                       # number of ReadCleanReq misses
system.l2.ReadCleanReq_misses::total              521                       # number of ReadCleanReq misses
system.l2.ReadCleanReq_miss_latency::.cpu.inst     51180000                       # number of ReadCleanReq miss cycles
system.l2.ReadCleanReq_miss_latency::total     51180000                       # number of ReadCleanReq miss cycles
system.l2.ReadCleanReq_accesses::.cpu.inst       535120                       # number of ReadCleanReq accesses(hits+misses)
system.l2.ReadCleanReq_accesses::total         535120                       # number of ReadCleanReq accesses(hits+misses)
system.l2.ReadCleanReq_miss_rate::.cpu.inst     0.000974                       # miss rate for ReadCleanReq accesses
system.l2.ReadCleanReq_miss_rate::total      0.000974                       # miss rate for ReadCleanReq accesses
system.l2.ReadCleanReq_avg_miss_latency::.cpu.inst 98234.165067                       # average ReadCleanReq miss latency
system.l2.ReadCleanReq_avg_miss_latency::total 98234.165067                       # average ReadCleanReq miss latency
system.l2.ReadCleanReq_mshr_hits::.cpu.inst            1                       # number of ReadCleanReq MSHR hits
system.l2.ReadCleanReq_mshr_hits::total             1                       # number of ReadCleanReq MSHR hits
system.l2.ReadCleanReq_mshr_misses::.cpu.inst          520                       # number of ReadCleanReq MSHR misses
system.l2.ReadCleanReq_mshr_misses::total          520                       # number of ReadCleanReq MSHR misses
system.l2.ReadCleanReq_mshr_miss_latency::.cpu.inst     40700000                       # number of ReadCleanReq MSHR miss cycles
system.l2.ReadCleanReq_mshr_miss_latency::total     40700000                       # number of ReadCleanReq MSHR miss cycles
system.l2.ReadCleanReq_mshr_miss_rate::.cpu.inst     0.000972                       # mshr miss rate for ReadCleanReq accesses
system.l2.ReadCleanReq_mshr_miss_rate::total     0.000972                       # mshr miss rate for ReadCleanReq accesses
system.l2.ReadCleanReq_avg_mshr_miss_latency::.cpu.inst 78269.230769                       # average ReadCleanReq mshr miss latency
system.l2.ReadCleanReq_avg_mshr_miss_latency::total 78269.230769                       # average ReadCleanReq mshr miss latency
system.l2.ReadSharedReq_hits::.cpu.data         14690                       # number of ReadSharedReq hits
system.l2.ReadSharedReq_hits::total             14690                       # number of ReadSharedReq hits
system.l2.ReadSharedReq_misses::.cpu.data          534                       # number of ReadSharedReq misses
system.l2.ReadSharedReq_misses::total             534                       # number of ReadSharedReq misses
system.l2.ReadSharedReq_miss_latency::.cpu.data     56308000                       # number of ReadSharedReq miss cycles
system.l2.ReadSharedReq_miss_latency::total     56308000                       # number of ReadSharedReq miss cycles
system.l2.ReadSharedReq_accesses::.cpu.data        15224                       # number of ReadSharedReq accesses(hits+misses)
system.l2.ReadSharedReq_accesses::total         15224                       # number of ReadSharedReq accesses(hits+misses)
system.l2.ReadSharedReq_miss_rate::.cpu.data     0.035076                       # miss rate for ReadSharedReq accesses
system.l2.ReadSharedReq_miss_rate::total     0.035076                       # miss rate for ReadSharedReq accesses
system.l2.ReadSharedReq_avg_miss_latency::.cpu.data 105445.692884                       # average ReadSharedReq miss latency
system.l2.ReadSharedReq_avg_miss_latency::total 105445.692884                       # average ReadSharedReq miss latency
system.l2.ReadSharedReq_mshr_hits::.cpu.data            5                       # number of ReadSharedReq MSHR hits
system.l2.ReadSharedReq_mshr_hits::total            5                       # number of ReadSharedReq MSHR hits
system.l2.ReadSharedReq_mshr_misses::.cpu.data          529                       # number of ReadSharedReq MSHR misses
system.l2.ReadSharedReq_mshr_misses::total          529                       # number of ReadSharedReq MSHR misses
system.l2.ReadSharedReq_mshr_miss_latency::.cpu.data     45322000                       # number of ReadSharedReq MSHR miss cycles
system.l2.ReadSharedReq_mshr_miss_latency::total     45322000                       # number of ReadSharedReq MSHR miss cycles
system.l2.ReadSharedReq_mshr_miss_rate::.cpu.data     0.034748                       # mshr miss rate for ReadSharedReq accesses
system.l2.ReadSharedReq_mshr_miss_rate::total     0.034748                       # mshr miss rate for ReadSharedReq accesses
system.l2.ReadSharedReq_avg_mshr_miss_latency::.cpu.data 85674.858223                       # average ReadSharedReq mshr miss latency
system.l2.ReadSharedReq_avg_mshr_miss_latency::total 85674.858223                       # average ReadSharedReq mshr miss latency
system.l2.power_state.pwrStateResidencyTicks::UNDEFINED 123106990000                       # Cumulative time (in ticks) in various power states
system.l2.tags.tagsinuse                 26360.534553                       # Cycle average of tags in use
system.l2.tags.total_refs                     1176868                       # Total number of references to valid blocks.
system.l2.tags.sampled_refs                     39865                       # Sample count of references to valid blocks.
system.l2.tags.avg_refs                     29.521335                       # Average number of references to valid blocks.
system.l2.tags.warmup_cycle                     87000                       # Cycle when the warmup percentage was hit.
system.l2.tags.occ_blocks::.writebacks       1.374722                       # Average occupied blocks per requestor
system.l2.tags.occ_blocks::.cpu.inst       337.615830                       # Average occupied blocks per requestor
system.l2.tags.occ_blocks::.cpu.data     26021.544000                       # Average occupied blocks per requestor
system.l2.tags.occ_percent::.writebacks      0.000042                       # Average percentage of cache occupancy
system.l2.tags.occ_percent::.cpu.inst        0.010303                       # Average percentage of cache occupancy
system.l2.tags.occ_percent::.cpu.data        0.794115                       # Average percentage of cache occupancy
system.l2.tags.occ_percent::total            0.804460                       # Average percentage of cache occupancy
system.l2.tags.occ_task_id_blocks::1024         32768                       # Occupied blocks per task id
system.l2.tags.age_task_id_blocks_1024::0            1                       # Occupied blocks per task id
system.l2.tags.age_task_id_blocks_1024::1           16                       # Occupied blocks per task id
system.l2.tags.age_task_id_blocks_1024::2          179                       # Occupied blocks per task id
system.l2.tags.age_task_id_blocks_1024::3         1784                       # Occupied blocks per task id
system.l2.tags.age_task_id_blocks_1024::4        30788                       # Occupied blocks per task id
system.l2.tags.occ_task_id_percent::1024            1                       # Percentage of cache occupancy per task id
system.l2.tags.tag_accesses                   9454865                       # Number of tag accesses
system.l2.tags.data_accesses                  9454865                       # Number of data accesses
system.l2.tags.power_state.pwrStateResidencyTicks::UNDEFINED 123106990000                       # Cumulative time (in ticks) in various power states
system.mem_ctrls.avgPriority_.writebacks::samples      6513.00                       # Average QoS priority value for accepted requests
system.mem_ctrls.avgPriority_.cpu.inst::samples       520.00                       # Average QoS priority value for accepted requests
system.mem_ctrls.avgPriority_.cpu.data::samples     39338.00                       # Average QoS priority value for accepted requests
system.mem_ctrls.priorityMinLatency      0.000000018750                       # per QoS priority minimum request to response latency (s)
system.mem_ctrls.priorityMaxLatency      0.037607718500                       # per QoS priority maximum request to response latency (s)
system.mem_ctrls.numReadWriteTurnArounds          360                       # Number of turnarounds from READ to WRITE
system.mem_ctrls.numWriteReadTurnArounds          360                       # Number of turnarounds from WRITE to READ
system.mem_ctrls.numStayReadState              117828                       # Number of times bus staying in READ state
system.mem_ctrls.numStayWriteState               6130                       # Number of times bus staying in WRITE state
system.mem_ctrls.readReqs                       39859                       # Number of read requests accepted
system.mem_ctrls.writeReqs                       6513                       # Number of write requests accepted
system.mem_ctrls.readBursts                     39859                       # Number of controller read bursts, including those serviced by the write queue
system.mem_ctrls.writeBursts                     6513                       # Number of controller write bursts, including those merged in the write queue
system.mem_ctrls.servicedByWrQ                      1                       # Number of controller read bursts serviced by the write queue
system.mem_ctrls.mergedWrBursts                     0                       # Number of controller write bursts merged with an existing one
system.mem_ctrls.neitherReadNorWriteReqs            0                       # Number of requests that are neither read nor write
system.mem_ctrls.avgRdQLen                       1.00                       # Average read queue length when enqueuing
system.mem_ctrls.avgWrQLen                       9.16                       # Average write queue length when enqueuing
system.mem_ctrls.numRdRetry                         0                       # Number of times read queue was full causing retry
system.mem_ctrls.numWrRetry                         0                       # Number of times write queue was full causing retry
system.mem_ctrls.readPktSize::0                     0                       # Read request sizes (log2)
system.mem_ctrls.readPktSize::1                     0                       # Read request sizes (log2)
system.mem_ctrls.readPktSize::2                     0                       # Read request sizes (log2)
system.mem_ctrls.readPktSize::3                     0                       # Read request sizes (log2)
system.mem_ctrls.readPktSize::4                     0                       # Read request sizes (log2)
system.mem_ctrls.readPktSize::5                     0                       # Read request sizes (log2)
system.mem_ctrls.readPktSize::6                 39859                       # Read request sizes (log2)
system.mem_ctrls.writePktSize::0                    0                       # Write request sizes (log2)
system.mem_ctrls.writePktSize::1                    0                       # Write request sizes (log2)
system.mem_ctrls.writePktSize::2                    0                       # Write request sizes (log2)
system.mem_ctrls.writePktSize::3                    0                       # Write request sizes (log2)
system.mem_ctrls.writePktSize::4                    0                       # Write request sizes (log2)
system.mem_ctrls.writePktSize::5                    0                       # Write request sizes (log2)
system.mem_ctrls.writePktSize::6                 6513                       # Write request sizes (log2)
system.mem_ctrls.rdQLenPdf::0                   39706                       # What read queue length does an incoming req see
system.mem_ctrls.rdQLenPdf::1                     146                       # What read queue length does an incoming req see
[...]
system.mem_ctrls.dram.bw_write::.writebacks      3385933                       # Write bandwidth from this memory (bytes/s)
system.mem_ctrls.dram.bw_write::total         3385933                       # Write bandwidth from this memory (bytes/s)
system.mem_ctrls.dram.bw_total::.writebacks      3385933                       # Total bandwidth to/from this memory (bytes/s)
system.mem_ctrls.dram.bw_total::.cpu.inst       270334                       # Total bandwidth to/from this memory (bytes/s)
system.mem_ctrls.dram.bw_total::.cpu.data     20451284                       # Total bandwidth to/from this memory (bytes/s)
system.mem_ctrls.dram.bw_total::total        24107551                       # Total bandwidth to/from this memory (bytes/s)
system.mem_ctrls.dram.readBursts                39858                       # Number of DRAM read bursts
system.mem_ctrls.dram.writeBursts                6484                       # Number of DRAM write bursts
system.mem_ctrls.dram.perBankRdBursts::0         2530                       # Per bank write bursts
system.mem_ctrls.dram.perBankRdBursts::1         2492                       # Per bank write bursts
system.mem_ctrls.dram.perBankRdBursts::2         2485                       # Per bank write bursts
system.mem_ctrls.dram.perBankRdBursts::3         2595                       # Per bank write bursts
system.mem_ctrls.dram.perBankRdBursts::4         2449                       # Per bank write bursts
system.mem_ctrls.dram.perBankRdBursts::5         2383                       # Per bank write bursts
system.mem_ctrls.dram.perBankRdBursts::6         2455                       # Per bank write bursts
system.mem_ctrls.dram.perBankRdBursts::7         2464                       # Per bank write bursts
system.mem_ctrls.dram.perBankRdBursts::8         2472                       # Per bank write bursts
system.mem_ctrls.dram.perBankRdBursts::9         2506                       # Per bank write bursts
system.mem_ctrls.dram.perBankRdBursts::10         2493                       # Per bank write bursts
system.mem_ctrls.dram.perBankRdBursts::11         2512                       # Per bank write bursts
system.mem_ctrls.dram.perBankRdBursts::12         2500                       # Per bank write bursts
system.mem_ctrls.dram.perBankRdBursts::13         2489                       # Per bank write bursts
system.mem_ctrls.dram.perBankRdBursts::14         2517                       # Per bank write bursts
system.mem_ctrls.dram.perBankRdBursts::15         2516                       # Per bank write bursts
system.mem_ctrls.dram.perBankWrBursts::0          439                       # Per bank write bursts
system.mem_ctrls.dram.perBankWrBursts::1          403                       # Per bank write bursts
system.mem_ctrls.dram.perBankWrBursts::2          420                       # Per bank write bursts
system.mem_ctrls.dram.perBankWrBursts::3          459                       # Per bank write bursts
system.mem_ctrls.dram.perBankWrBursts::4          358                       # Per bank write bursts
system.mem_ctrls.dram.perBankWrBursts::5          334                       # Per bank write bursts
system.mem_ctrls.dram.perBankWrBursts::6          407                       # Per bank write bursts
system.mem_ctrls.dram.perBankWrBursts::7          395                       # Per bank write bursts
system.mem_ctrls.dram.perBankWrBursts::8          397                       # Per bank write bursts
system.mem_ctrls.dram.perBankWrBursts::9          413                       # Per bank write bursts
system.mem_ctrls.dram.perBankWrBursts::10          404                       # Per bank write bursts
system.mem_ctrls.dram.perBankWrBursts::11          400                       # Per bank write bursts
system.mem_ctrls.dram.perBankWrBursts::12          405                       # Per bank write bursts
system.mem_ctrls.dram.perBankWrBursts::13          415                       # Per bank write bursts
system.mem_ctrls.dram.perBankWrBursts::14          396                       # Per bank write bursts
system.mem_ctrls.dram.perBankWrBursts::15          439                       # Per bank write bursts
system.mem_ctrls.dram.totQLat               672707250                       # Total ticks spent queuing
system.mem_ctrls.dram.totBusLat             199290000                       # Total ticks spent in databus transfers
system.mem_ctrls.dram.totMemAccLat         1420044750                       # Total ticks spent from burst creation until serviced by the DRAM
system.mem_ctrls.dram.avgQLat                16877.60                       # Average queueing delay per DRAM burst
system.mem_ctrls.dram.avgBusLat               5000.00                       # Average bus latency per DRAM burst
system.mem_ctrls.dram.avgMemAccLat           35627.60                       # Average memory access latency per DRAM burst
system.mem_ctrls.dram.readRowHits               20882                       # Number of row buffer hits during reads
system.mem_ctrls.dram.writeRowHits               5425                       # Number of row buffer hits during writes
system.mem_ctrls.dram.readRowHitRate            52.39                       # Row buffer hit rate for reads
system.mem_ctrls.dram.writeRowHitRate           83.67                       # Row buffer hit rate for writes
system.mem_ctrls.dram.bytesPerActivate::samples        20034                       # Bytes accessed per row activation
system.mem_ctrls.dram.bytesPerActivate::mean   148.039533                       # Bytes accessed per row activation
system.mem_ctrls.dram.bytesPerActivate::gmean   112.162851                       # Bytes accessed per row activation
system.mem_ctrls.dram.bytesPerActivate::stdev   148.703733                       # Bytes accessed per row activation
system.mem_ctrls.dram.bytesPerActivate::0-127         9538     47.61%     47.61% # Bytes accessed per row activation
system.mem_ctrls.dram.bytesPerActivate::128-255         7487     37.37%     84.98% # Bytes accessed per row activation
system.mem_ctrls.dram.bytesPerActivate::256-383         1179      5.88%     90.87% # Bytes accessed per row activation
system.mem_ctrls.dram.bytesPerActivate::384-511         1089      5.44%     96.30% # Bytes accessed per row activation
system.mem_ctrls.dram.bytesPerActivate::512-639          416      2.08%     98.38% # Bytes accessed per row activation
system.mem_ctrls.dram.bytesPerActivate::640-767           44      0.22%     98.60% # Bytes accessed per row activation
system.mem_ctrls.dram.bytesPerActivate::768-895           39      0.19%     98.79% # Bytes accessed per row activation
system.mem_ctrls.dram.bytesPerActivate::896-1023           49      0.24%     99.04% # Bytes accessed per row activation
system.mem_ctrls.dram.bytesPerActivate::1024-1151          193      0.96%    100.00% # Bytes accessed per row activation
system.mem_ctrls.dram.bytesPerActivate::total        20034                       # Bytes accessed per row activation
system.mem_ctrls.dram.bytesRead               2550912                       # Total number of bytes read from DRAM
system.mem_ctrls.dram.bytesWritten             414976                       # Total number of bytes written to DRAM
system.mem_ctrls.dram.avgRdBW               20.721098                       # Average DRAM read bandwidth in MiBytes/s
system.mem_ctrls.dram.avgWrBW                3.370857                       # Average DRAM write bandwidth in MiBytes/s
system.mem_ctrls.dram.peakBW                 12800.00                       # Theoretical peak bandwidth in MiByte/s
system.mem_ctrls.dram.busUtil                    0.19                       # Data bus utilization in percentage
system.mem_ctrls.dram.busUtilRead                0.16                       # Data bus utilization in percentage for reads
system.mem_ctrls.dram.busUtilWrite               0.03                       # Data bus utilization in percentage for writes
system.mem_ctrls.dram.pageHitRate               56.77                       # Row buffer hit rate, read and write combined
system.mem_ctrls.dram.power_state.pwrStateResidencyTicks::UNDEFINED 123106990000                       # Cumulative time (in ticks) in various power states
system.mem_ctrls.dram.rank0.actEnergy        72542400                       # Energy for activate commands per rank (pJ)
system.mem_ctrls.dram.rank0.preEnergy        38553405                       # Energy for precharge commands per rank (pJ)
system.mem_ctrls.dram.rank0.readEnergy      141750420                       # Energy for read commands per rank (pJ)
system.mem_ctrls.dram.rank0.writeEnergy      16782300                       # Energy for write commands per rank (pJ)
system.mem_ctrls.dram.rank0.refreshEnergy 9717458400.000002                       # Energy for refresh commands per rank (pJ)
system.mem_ctrls.dram.rank0.actBackEnergy  22030953720                       # Energy for active background per rank (pJ)
system.mem_ctrls.dram.rank0.preBackEnergy  28720702080                       # Energy for precharge background per rank (pJ)
system.mem_ctrls.dram.rank0.actPowerDownEnergy            0                       # Energy for active power-down per rank (pJ)
system.mem_ctrls.dram.rank0.prePowerDownEnergy            0                       # Energy for precharge power-down per rank (pJ)
system.mem_ctrls.dram.rank0.selfRefreshEnergy            0                       # Energy for self refresh per rank (pJ)
system.mem_ctrls.dram.rank0.totalEnergy   60738742725                       # Total energy per rank (pJ)
system.mem_ctrls.dram.rank0.averagePower   493.381755                       # Core power per rank (mW)
system.mem_ctrls.dram.rank0.totalIdleTime            0                       # Total Idle time Per DRAM Rank
system.mem_ctrls.dram.rank0.pwrStateTime::IDLE  74455643250                       # Time in different power states
system.mem_ctrls.dram.rank0.pwrStateTime::REF   4110600000                       # Time in different power states
system.mem_ctrls.dram.rank0.pwrStateTime::SREF            0                       # Time in different power states
system.mem_ctrls.dram.rank0.pwrStateTime::PRE_PDN            0                       # Time in different power states
system.mem_ctrls.dram.rank0.pwrStateTime::ACT  44540746750                       # Time in different power states
system.mem_ctrls.dram.rank0.pwrStateTime::ACT_PDN            0                       # Time in different power states
system.mem_ctrls.dram.rank1.actEnergy        70507500                       # Energy for activate commands per rank (pJ)
system.mem_ctrls.dram.rank1.preEnergy        37475625                       # Energy for precharge commands per rank (pJ)
system.mem_ctrls.dram.rank1.readEnergy      142835700                       # Energy for read commands per rank (pJ)
system.mem_ctrls.dram.rank1.writeEnergy      17064180                       # Energy for write commands per rank (pJ)
system.mem_ctrls.dram.rank1.refreshEnergy 9717458400.000002                       # Energy for refresh commands per rank (pJ)
system.mem_ctrls.dram.rank1.actBackEnergy  21721062390                       # Energy for active background per rank (pJ)
system.mem_ctrls.dram.rank1.preBackEnergy  28981663200                       # Energy for precharge background per rank (pJ)
system.mem_ctrls.dram.rank1.actPowerDownEnergy            0                       # Energy for active power-down per rank (pJ)
system.mem_ctrls.dram.rank1.prePowerDownEnergy            0                       # Energy for precharge power-down per rank (pJ)
system.mem_ctrls.dram.rank1.selfRefreshEnergy            0                       # Energy for self refresh per rank (pJ)
system.mem_ctrls.dram.rank1.totalEnergy   60688066995                       # Total energy per rank (pJ)
system.mem_ctrls.dram.rank1.averagePower   492.970115                       # Core power per rank (mW)
system.mem_ctrls.dram.rank1.totalIdleTime            0                       # Total Idle time Per DRAM Rank
system.mem_ctrls.dram.rank1.pwrStateTime::IDLE  75136475000                       # Time in different power states
system.mem_ctrls.dram.rank1.pwrStateTime::REF   4110600000                       # Time in different power states
system.mem_ctrls.dram.rank1.pwrStateTime::SREF            0                       # Time in different power states
system.mem_ctrls.dram.rank1.pwrStateTime::PRE_PDN            0                       # Time in different power states
system.mem_ctrls.dram.rank1.pwrStateTime::ACT  43859915000                       # Time in different power states
system.mem_ctrls.dram.rank1.pwrStateTime::ACT_PDN            0                       # Time in different power states
system.mem_ctrls.power_state.pwrStateResidencyTicks::UNDEFINED 123106990000                       # Cumulative time (in ticks) in various power states
system.membus.trans_dist::ReadResp               1049                       # Transaction distribution
system.membus.trans_dist::WritebackDirty         6513                       # Transaction distribution
system.membus.trans_dist::CleanEvict              175                       # Transaction distribution
system.membus.trans_dist::ReadExReq             38810                       # Transaction distribution
system.membus.trans_dist::ReadExResp            38810                       # Transaction distribution
system.membus.trans_dist::ReadSharedReq          1049                       # Transaction distribution
system.membus.pkt_count_system.l2.mem_side_port::system.mem_ctrls.port        86406                       # Packet count per connected requestor and responder (bytes)
system.membus.pkt_count::total                  86406                       # Packet count per connected requestor and responder (bytes)
system.membus.pkt_size_system.l2.mem_side_port::system.mem_ctrls.port      2967808                       # Cumulative packet size per connected requestor and responder (bytes)
system.membus.pkt_size::total                 2967808                       # Cumulative packet size per connected requestor and responder (bytes)
system.membus.snoops                                0                       # Total snoops (count)
system.membus.snoopTraffic                          0                       # Total snoop traffic (bytes)
system.membus.snoop_fanout::samples             39859                       # Request fanout histogram
system.membus.snoop_fanout::mean                    0                       # Request fanout histogram
system.membus.snoop_fanout::stdev                   0                       # Request fanout histogram
system.membus.snoop_fanout::underflows              0      0.00%      0.00% # Request fanout histogram
system.membus.snoop_fanout::0                   39859    100.00%    100.00% # Request fanout histogram
system.membus.snoop_fanout::1                       0      0.00%    100.00% # Request fanout histogram
system.membus.snoop_fanout::overflows               0      0.00%    100.00% # Request fanout histogram
system.membus.snoop_fanout::min_value               0                       # Request fanout histogram
system.membus.snoop_fanout::max_value               0                       # Request fanout histogram
system.membus.snoop_fanout::total               39859                       # Request fanout histogram
system.membus.power_state.pwrStateResidencyTicks::UNDEFINED 123106990000                       # Cumulative time (in ticks) in various power states
system.membus.reqLayer0.occupancy            72599000                       # Layer occupancy (ticks)
system.membus.reqLayer0.utilization               0.1                       # Layer utilization (%)
system.membus.respLayer1.occupancy          213730500                       # Layer occupancy (ticks)
system.membus.respLayer1.utilization              0.2                       # Layer utilization (%)
system.tol2bus.trans_dist::ReadResp            550344                       # Transaction distribution
system.tol2bus.trans_dist::WritebackDirty        56434                       # Transaction distribution
system.tol2bus.trans_dist::WritebackClean       534720                       # Transaction distribution
system.tol2bus.trans_dist::CleanEvict            3682                       # Transaction distribution
system.tol2bus.trans_dist::ReadExReq            38819                       # Transaction distribution
system.tol2bus.trans_dist::ReadExResp           38819                       # Transaction distribution
system.tol2bus.trans_dist::ReadCleanReq        535120                       # Transaction distribution
system.tol2bus.trans_dist::ReadSharedReq        15224                       # Transaction distribution
system.tol2bus.pkt_count_system.cpu.icache.mem_side_port::system.l2.cpu_side_port      1604960                       # Packet count per connected requestor and responder (bytes)
system.tol2bus.pkt_count_system.cpu.dcache.mem_side_port::system.l2.cpu_side_port       161105                       # Packet count per connected requestor and responder (bytes)
system.tol2bus.pkt_count::total               1766065                       # Packet count per connected requestor and responder (bytes)
system.tol2bus.pkt_size_system.cpu.icache.mem_side_port::system.l2.cpu_side_port     68469760                       # Cumulative packet size per connected requestor and responder (bytes)
system.tol2bus.pkt_size_system.cpu.dcache.mem_side_port::system.l2.cpu_side_port      6653696                       # Cumulative packet size per connected requestor and responder (bytes)
system.tol2bus.pkt_size::total               75123456                       # Cumulative packet size per connected requestor and responder (bytes)
system.tol2bus.snoops                            7097                       # Total snoops (count)
system.tol2bus.snoopTraffic                    416832                       # Total snoop traffic (bytes)
system.tol2bus.snoop_fanout::samples           596260                       # Request fanout histogram
system.tol2bus.snoop_fanout::mean            0.000743                       # Request fanout histogram
system.tol2bus.snoop_fanout::stdev           0.027370                       # Request fanout histogram
system.tol2bus.snoop_fanout::underflows             0      0.00%      0.00% # Request fanout histogram
system.tol2bus.snoop_fanout::0                 595819     99.93%     99.93% # Request fanout histogram
system.tol2bus.snoop_fanout::1                    439      0.07%    100.00% # Request fanout histogram
system.tol2bus.snoop_fanout::2                      2      0.00%    100.00% # Request fanout histogram
system.tol2bus.snoop_fanout::overflows              0      0.00%    100.00% # Request fanout histogram
system.tol2bus.snoop_fanout::min_value              0                       # Request fanout histogram
system.tol2bus.snoop_fanout::max_value              2                       # Request fanout histogram
system.tol2bus.snoop_fanout::total             596260                       # Request fanout histogram
system.tol2bus.power_state.pwrStateResidencyTicks::UNDEFINED 123106990000                       # Cumulative time (in ticks) in various power states
system.tol2bus.reqLayer0.occupancy         2346184000                       # Layer occupancy (ticks)
system.tol2bus.reqLayer0.utilization              1.9                       # Layer utilization (%)
system.tol2bus.respLayer0.occupancy        1605360999                       # Layer occupancy (ticks)
system.tol2bus.respLayer0.utilization             1.3                       # Layer utilization (%)
system.tol2bus.respLayer1.occupancy         162136992                       # Layer occupancy (ticks)
system.tol2bus.respLayer1.utilization             0.1                       # Layer utilization (%)
system.voltage_domain.voltage                       1                       # Voltage in Volts

---------- End Simulation Statistics   ----------
